
**** 10/20/17 23:45:49 ***** PSpice 16.6.0 (October 2012) ***** ID# 0 ********

 ** Profile: "SCHEMATIC1-dc_sweep"  [ C:\Users\katerina\Desktop\ptyxiaki\projects_final\inverters_pulse\16_pulse\16_pulse-PSpiceFiles


 ****     CIRCUIT DESCRIPTION


******************************************************************************




** Creating circuit file "dc_sweep.cir" 
** WARNING: THIS AUTOMATICALLY GENERATED FILE MAY BE OVERWRITTEN BY SUBSEQUENT SIMULATIONS

*Libraries: 
* Profile Libraries :
* Local Libraries :
.LIB "C:/Users/katerina/Desktop/ptyxiaki/ptm_library/PTM_Models.lib" 
* From [PSPICE NETLIST] section of C:\Users\katerina\AppData\Roaming\SPB_Data\cdssetup\OrCAD_PSpice/16.6.0/PSpice.ini file:
.lib "nom.lib" 

*Analysis directives: 
.DC LIN PARAM A 0 0.9 0.01 
.OPTIONS ADVCONV
.PROBE64 V(alias(*)) I(alias(*)) W(alias(*)) D(alias(*)) NOISE(alias(*)) 
.INC "..\SCHEMATIC1.net" 



**** INCLUDING SCHEMATIC1.net ****
* source 16_PULSE
M_M1         N00099 N00103 N00115 N00115 pMOS_16nm_PTM  
+ L={p_size_l}  
+ W={p_size_w}         
M_M2         N00099 N00103 0 0 nMOS_16nm_PTM  
+ L={n_size_l}  
+ W={n_size_w}         
C_C1         0 N00099  1f  TC=0,0 
V_A         N00103 0  
+PULSE 0 {vdd_nominal} 0 70p 10p 1n 2n
V_Vin         N00115 0 {vdd_nominal}
.PARAM  n_size_l=30nm p_to_n_ratio=0.975 p_size_w={ p_to_n_ratio * n_size_w }
+  n_size_w=670nm p_size_l={n_size_l} vdd_nominal=0.9

**** RESUMING dc_sweep.cir ****
.END


ERROR(ORPSIM-15167): Undefined parameter: A.
